387
	Energy:      -5.7906217
H         -2.49829        8.91414       -0.89654
O         -2.11643        9.74035       -0.54926
P         -0.57637        9.29486       -0.38679
O          0.28685       10.51519       -0.48368
O         -0.48087        8.12376       -1.32179
O         -0.67425        8.74127        1.11944
C         -0.81738        9.66918        2.17428
C         -0.45319        9.00534        3.49702
O         -1.42073        7.98144        3.82723
C          0.90761        8.33819        3.45562
O          1.40552        8.43572        4.77885
C          0.58015        6.92303        2.98290
O          1.49853        5.90968        3.35231
C         -0.84053        6.68454        3.52855
N         -1.79532        6.00520        2.65664
C         -1.74799        5.87036        1.28865
N         -2.84340        5.32805        0.79032
C         -3.63698        5.09946        1.88174
C         -4.91454        4.52457        1.98514
N         -5.64821        4.13012        0.86122
N         -5.42198        4.28502        3.21361
C         -4.68400        4.67823        4.28031
N         -3.48423        5.28965        4.29881
C         -3.00029        5.46451        3.05669
H         -0.80136        6.10215        4.45902
H          0.60197        6.91664        1.89448
H          1.60144        8.85265        2.78229
H         -0.50982        9.75471        4.29536
H         -0.16186       10.52970        2.01389
H         -1.85832       10.00280        2.20449
H         -5.11455        4.46073        5.25361
H         -0.90809        6.19613        0.68556
H         -6.18665        3.30186        1.06959
H         -5.03419        4.08573        0.04952
H          2.40576        6.31619        3.33281
P          2.94862        8.02026        5.00867
O          3.59161        9.05648        5.88954
O          3.51823        7.58293        3.68227
O          2.63248        6.69171        5.84403
C          2.18051        6.77529        7.17170
C          2.55473        5.48029        7.87668
O          1.59453        4.44359        7.56893
C          3.92032        4.98293        7.44328
O          4.46724        4.36423        8.59414
C          3.56563        4.05589        6.28055
O          4.58554        3.14617        5.92679
C          2.22197        3.43030        6.73124
N          1.20941        3.05015        5.72492
C          0.00664        2.48686        6.17249
O         -0.18163        2.15899        7.34450
N         -1.02734        2.30946        5.26389
C         -0.80446        2.51479        4.00299
N         -1.86668        2.36420        3.14271
C          0.50191        2.92276        3.47054
C          1.44675        3.17144        4.37439
H          2.40760        2.54550        7.35437
H          3.41715        4.66236        5.38786
H          4.60105        5.78678        7.14269
H          2.49200        5.63617        8.95918
H          2.66864        7.61018        7.68079
H          1.09758        6.92530        7.17253
H          0.66991        3.01806        2.40910
H          2.43391        3.47022        4.04057
H         -2.74101        2.49882        3.63493
H         -1.79839        2.91892        2.29647
H          5.45760        3.58453        6.11217
P          5.98241        3.81868        8.50860
O          6.66791        4.14368        9.80977
O          6.56483        4.17320        7.16409
O          5.57837        2.26046        8.47684
C          5.06269        1.68490        9.65613
C          5.41240        0.20649        9.65338
O          4.45278       -0.52574        8.84789
C          6.80110       -0.03069        9.08164
O          7.36808       -1.08792        9.83497
C          6.50539       -0.31960        7.61077
O          7.44941       -1.13753        6.94664
C          5.08522       -0.92711        7.60758
N          4.19330       -0.56094        6.50204
C          4.42865        0.41886        5.56681
N          3.42327        0.60798        4.73898
C          2.52556       -0.33910        5.09634
C          1.28088       -0.67557        4.45445
O          0.76116       -0.12087        3.48810
N          0.71433       -1.81270        4.98725
C          1.34482       -2.62426        5.90032
N          0.75212       -3.83918        6.06727
N          2.45365       -2.32778        6.52562
C          3.00013       -1.14802        6.11494
H          5.13941       -2.02281        7.59527
H          6.53588        0.63251        7.08220
H          7.45184        0.84384        9.19876
H          5.31733       -0.18069       10.67406
H          5.51443        2.15206       10.53560
H          3.97985        1.83382        9.68462
H         -0.15373       -2.07266        4.55903
H          5.34898        0.98323        5.51786
H          0.36347       -4.20360        5.20730
H          1.42868       -4.48194        6.47039
H          8.33908       -0.89617        7.29911
P          8.94894       -1.36762        9.63556
O          9.53123       -1.82767       10.94651
O          9.55453       -0.28598        8.78444
O          8.76521       -2.62903        8.66555
C          8.15298       -3.78606        9.17306
C          8.49910       -4.93667        8.25141
O          7.52095       -5.04817        7.19640
C          9.86136       -4.75446        7.60963
O         10.41156       -6.05708        7.57946
C          9.50436       -4.10660        6.26657
O         10.49244       -4.22948        5.25914
C          8.14553       -4.75156        5.92053
N          7.13638       -4.00780        5.13863
C          5.90788       -4.62987        4.93530
O          5.63220       -5.80836        5.16840
N          4.91972       -3.83742        4.40782
C          5.11279       -2.63712        3.80227
O          4.29066       -2.17610        3.01650
C          6.41449       -2.00892        4.04712
C          7.36228       -2.72966        4.65587
H          8.30618       -5.70324        5.39677
H          9.38476       -3.03437        6.42989
H         10.54628       -4.13200        8.19550
H          8.42377       -5.86922        8.82067
H          8.55336       -3.99388       10.16787
H          7.07120       -3.63593        9.23305
H          4.05006       -4.29497        4.21452
H          6.57388       -0.99663        3.69868
H          8.34490       -2.29108        4.79978
H         11.37488       -4.19595        5.71580
P         11.92003       -6.21279        7.04148
O         12.61343       -7.26458        7.86705
O         12.50337       -4.84961        6.77495
O         11.48390       -6.82972        5.62615
C         10.96980       -8.13718        5.58330
C         11.35286       -8.72283        4.23780
O         10.41546       -8.28432        3.22501
C         12.74186       -8.27084        3.81560
O         13.30144       -9.36906        3.11890
C         12.44617       -7.01282        2.99434
O         13.43086       -6.65353        2.04173
C         11.06136       -7.29700        2.38080
N         10.14154       -6.17028        2.23179
C         10.39713       -4.85170        2.51765
N          9.38965       -4.05409        2.22067
C          8.42664       -4.89388        1.72821
C          7.15467       -4.60910        1.19950
N          6.66752       -3.30717        1.11246
N          6.42857       -5.61891        0.67927
C          7.00604       -6.84269        0.65775
N          8.20317       -7.24093        1.13951
C          8.87589       -6.20539        1.67734
H         11.16743       -7.72550        1.37591
H         12.39896       -6.16065        3.67298
H         13.39340       -8.05599        4.67037
H         11.26449       -9.81341        4.28637
H         11.40719       -8.74736        6.37771
H          9.88432       -8.09998        5.70905
H          6.42592       -7.61172        0.15893
H         11.33705       -4.50747        2.93239
H          5.66366       -3.24185        1.23217
H          7.21324       -2.67331        1.69418
H         14.31131       -6.83571        2.45920
P         14.86073       -9.25733        2.71672
O         15.49387      -10.61826        2.85536
O         15.44691       -8.00615        3.31572
O         14.59852       -8.94151        1.17111
C         14.02138       -9.91687        0.34385
C         14.40163       -9.58378       -1.08737
O         13.43819       -8.67459       -1.66325
C         15.76530       -8.92289       -1.16604
O         16.33191       -9.39868       -2.37556
C         15.40050       -7.43651       -1.10650
O         16.42575       -6.58229       -1.57217
C         14.05965       -7.37662       -1.87992
N         13.03853       -6.36603       -1.54176
C         11.85258       -6.35050       -2.29175
O         11.67476       -7.08592       -3.26470
N         10.83788       -5.48035       -1.93060
C         11.04848       -4.60911       -0.99228
N         10.02186       -3.75441       -0.67800
C         12.32160       -4.50932       -0.26189
C         13.25840       -5.39640       -0.58881
H         14.25874       -7.27636       -2.95492
H         15.24366       -7.15320       -0.06517
H         16.44359       -9.21371       -0.35653
H         14.34261      -10.49760       -1.68780
H         14.42434      -10.89886        0.60314
H         12.93600       -9.91620        0.47917
H         12.47521       -3.73444        0.47514
H         14.22641       -5.34553       -0.10345
H          9.11652       -4.13018       -0.92933
H         10.02684       -3.41811        0.28696
H         17.29353       -6.99562       -1.32682
P         17.84472       -8.96760       -2.72682
O         18.53657      -10.14565       -3.36582
O         18.43742       -8.20440       -1.57036
O         17.43656       -7.90111       -3.86132
C         16.86996       -8.38724       -5.05638
C         17.23597       -7.42852       -6.17667
O         16.27649       -6.34052       -6.22209
C         18.62654       -6.83795       -5.98048
O         19.19794       -6.72574       -7.27281
C         18.31967       -5.53475       -5.24175
O         19.24289       -4.47893       -5.42906
C         16.89761       -5.14177       -5.70070
N         16.00527       -4.55070       -4.69914
C         16.25613       -4.47381       -3.34960
N         15.26521       -3.95502       -2.66060
C         14.36016       -3.60624       -3.60411
C         13.12947       -2.88066       -3.43019
O         12.66622       -2.44347       -2.38084
N         12.52222       -2.59358       -4.63173
C         13.14148       -2.75145       -5.84864
N         12.53891       -2.08080       -6.87019
N         14.25448       -3.41233       -6.04416
C         14.81405       -3.86828       -4.88573
H         16.95449       -4.40894       -6.51520
H         18.35107       -5.76055       -4.17576
H         19.27757       -7.49368       -5.39032
H         17.14589       -7.95472       -7.13339
H         17.27352       -9.37610       -5.29052
H         15.78513       -8.46140       -4.93775
H         11.66180       -2.08720       -4.52876
H         17.17726       -4.80499       -2.89244
H         12.09761       -1.22268       -6.56299
H         13.22072       -1.91080       -7.60276
H         20.11930       -4.87648       -5.62326
P         20.78042       -6.41043       -7.37577
O         21.33660       -7.06893       -8.61208
O         21.42244       -6.51642       -6.02217
O         20.60326       -4.83879       -7.65027
C         19.97445       -4.44899       -8.84726
C         20.32714       -3.00315       -9.12592
O         19.34901       -2.12685       -8.53177
C         21.68770       -2.63223       -8.56977
O         22.24120       -1.75628       -9.53402
C         21.32752       -2.03478       -7.20518
O         22.31943       -1.18906       -6.64979
C         19.96564       -1.35567       -7.46940
N         18.95426       -1.25503       -6.39906
C         17.72634       -0.69087       -6.73980
O         17.46275       -0.09658       -7.78715
N         16.73550       -0.80801       -5.79828
C         16.92606       -1.13542       -4.49393
O         16.11074       -0.83464       -3.62940
C         18.22271       -1.74078       -4.17771
C         19.17392       -1.72965       -5.11709
H         20.12399       -0.33630       -7.84531
H         21.21159       -2.85685       -6.49720
H         22.37339       -3.48138       -8.47816
H         20.25476       -2.83321      -10.20553
H         20.35555       -5.06556       -9.66442
H         18.89240       -4.58498       -8.75922
H         15.86734       -0.35381       -6.00993
H         18.37331       -2.14337       -3.18406
H         20.15229       -2.13177       -4.87552
H         23.19948       -1.56152       -6.92071
P         23.75154       -1.25000       -9.30694
O         24.44208       -1.17983      -10.64440
O         24.34586       -1.94044       -8.10646
O         23.32791        0.22586       -8.84078
C         22.79741        1.11474       -9.79215
C         23.18791        2.51759       -9.36197
O         22.24443        3.00308       -8.37625
C         24.57319        2.54572       -8.73178
O         25.14045        3.79742       -9.08117
C         24.26440        2.33944       -7.24698
O         25.24731        2.82741       -6.34897
C         22.87496        2.98651       -7.07081
N         21.95036        2.35402       -6.13138
C         22.20984        1.27760       -5.31975
N         21.20646        0.98000       -4.51915
C         20.23773        1.89636       -4.83465
C         18.96746        2.10903       -4.27093
N         18.48260        1.32723       -3.22841
N         18.24463        3.16528       -4.69223
C         18.81537        3.98218       -5.60610
N         20.01237        3.87907       -6.22540
C         20.68427        2.79382       -5.79470
H         22.97636        4.02466       -6.72977
H         24.21965        1.26842       -7.04801
H         25.23023        1.76217       -9.12639
H         23.10637        3.18978      -10.22253
H         23.21575        0.91131      -10.78112
H         21.71074        0.99470       -9.82687
H         18.23009        4.86020       -5.85911
H         23.14980        0.73993       -5.33017
H         17.47275        1.22864       -3.22067
H         19.00001        0.45723       -3.13056
H         26.12700        2.63126       -6.76090
P         26.70213        4.01958       -8.73379
O         27.34517        4.80499       -9.84773
O         27.28566        2.74857       -8.17351
O         26.46131        4.98511       -7.48032
C         25.88500        6.25108       -7.66511
C         26.26729        7.10974       -6.46845
O         25.28991        6.94904       -5.41566
C         27.61996        6.72615       -5.89140
O         28.17983        7.92464       -5.36809
C         27.23211        5.68400       -4.84067
O         28.24915        5.46498       -3.88018
C         25.89052        6.23755       -4.29810
N         24.85987        5.32594       -3.77072
C         23.68091        5.89215       -3.25955
O         23.53039        7.11096       -3.15688
N         22.65896        5.05807       -2.84362
C         22.84976        3.77492       -2.82002
N         21.81869        2.98333       -2.38436
C         24.11384        3.14644       -3.23356
C         25.06103        3.96709       -3.68107
H         26.09228        6.97308       -3.50841
H         27.07817        4.71982       -5.32544
H         28.31707        6.33173       -6.63877
H         26.22187        8.16342       -6.76215
H         26.28391        6.70187       -8.57700
H         24.79884        6.14889       -7.75209
H         24.24878        2.07802       -3.14740
H         26.02042        3.55638       -3.97222
H         20.91286        3.42796       -2.48048
H         21.79961        2.03846       -2.77417
H         29.11791        5.55190       -4.35109
P         29.71187        7.89297       -4.86043
O         30.41018        9.14109       -5.33944
O         30.29629        6.51588       -5.04977
O         29.38394        8.05006       -3.28958
C         28.88516        9.28502       -2.83102
C         29.26504        9.43570       -1.35925
O         28.24166        8.78848       -0.55223
C         30.61891        8.79173       -1.02414
O         31.25632        9.54453        0.00551
C         30.19548        7.38778       -0.59626
O         31.03931        6.72786        0.33510
C         28.76907        7.55180       -0.02875
N         27.83477        6.45109       -0.28581
C         28.07927        5.39221       -1.12897
N         27.09984        4.52245       -1.17976
C         26.18864        5.00660       -0.30481
C         24.94804        4.41137        0.10548
O         24.50353        3.31753       -0.25521
N         24.32032        5.13912        1.08619
C         24.92757        6.16488        1.77613
N         24.27139        6.53631        2.90911
N         26.07155        6.71593        1.44722
C         26.64508        6.13899        0.35145
H         28.81018        7.64984        1.06320
H         30.21666        6.77232       -1.49409
H         31.28646        8.78287       -1.89312
H         29.23874       10.49826       -1.09446
H         29.32526       10.10715       -3.40168
H         27.79847        9.30109       -2.96570
H         23.43802        4.74843        1.36863
H         28.98847        5.27369       -1.69875
H         23.70467        5.80511        3.32061
H         24.89995        6.97535        3.56948
H         31.62019        7.39995        0.73083
P         32.85086        9.34432        0.24825
O         33.48799       10.65153        0.64100
O         33.46368        8.41762       -0.75777
O         32.69684        8.45241        1.59857
C         32.24735        9.13383        2.75341
C         32.50364        8.26503        3.97747
O         31.40064        7.34442        4.10382
C         33.78560        7.44026        3.88983
O         34.39810        7.30544        5.18677
C         33.30598        6.07306        3.41684
O         34.17407        5.03790        3.91712
C         31.88183        5.99621        4.00047
N         30.86505        5.19273        3.31567
C         29.62017        5.10782        3.94585
O         29.40591        5.43958        5.11291
N         28.60896        4.56614        3.19787
C         28.78772        3.80847        2.08172
O         27.95310        2.99759        1.70646
C         30.09197        3.94829        1.43072
C         31.05745        4.61236        2.07287
H         31.94512        5.60280        5.02380
H         33.33175        6.05258        2.32550
H         34.54735        7.87503        3.23374
H         32.48511        8.89840        4.87045
H         32.79484       10.07271        2.86298
H         31.17887        9.34963        2.64249
H         27.71328        4.46266        3.64303
H         30.20853        3.53429        0.43613
H         32.00761        4.73672        1.56625
H         33.69421        4.20045        3.77670
H         34.98238        6.52768        5.07317
